[General]
network = C1S
real-time-limit = 15s
sim-time-limit = 10s

#Client SIDE
**.client1.numApps = 1 #number of applications on clients
**.client1.app[0].typename = "TcpSessionApp" #client application layer
**.client1.app[0].connectAddress = "server" #destination address
**.client1.app[0].connectPort = 1000 #destination port
**.client1.app[0].sendBytes = 1MB #amout of data to send 

#CLIENT SIDE
**.client2.numApps = 1 #number of applications on clients
**.client2.app[0].typename = "TcpSessionApp" #client application layer
**.client2.app[0].connectAddress = "server" #destination address
**.client2.app[0].connectPort = 1000 #destination port
**.client2.app[0].sendBytes = 1MB #amout of data to send 

#CLIENT SIDE
**.client3.numApps = 1 #number of applications on clients
**.client3.app[0].typename = "TcpSessionApp" #client application layer
**.client3.app[0].connectAddress = "server" #destination address
**.client3.app[0].connectPort = 1000 #destination port
**.client3.app[0].sendBytes = 1MB #amout of data to send 

#CLIENT SIDE
**.client4.numApps = 1 #number of applications on clients
**.client4.app[0].typename = "TcpSessionApp" #client application layer
**.client4.app[0].connectAddress = "server" #destination address
**.client4.app[0].connectPort = 1000 #destination port
**.client4.app[0].sendBytes = 1MB #amout of data to send 

#SERVER SIDE
**.server.numApps = 1 #number of applications on server
**.server.app[0].typename = "TcpEchoApp" #server application type jsut to receive the data
*.server.app[0].localPort = 1000 # Tcp server listen port